[TITLE]
Richmond Standard Water Supply System. Updated 22 December 2008
For more information on this network, see the file Richmond_readme.txt distribu
with this network, or email Kobus van Zyl at kobusvanzyl@mail.com

[JUNCTIONS]
 1                                    69.0000
 2                                   183.0000
 3                                   183.8200
 4                                   183.0000
 5                                   183.0000
 6                                   186.0000
 7                                   183.0000
 8                                   183.0000
 9                                    68.8500
 10                                  166.4200
 11                                  166.4800
 12                                  154.0000
 13                                  154.0000
 14                                  146.0000
 15                                  136.5100
 16                                  126.0000
 17                                  126.0000
 18                                  126.0000
 19                                  132.0000
 20                                   64.0000
 21                                  132.0000
 22                                  132.2000
 23                                  138.0000
 24                                  139.0000
 25                                  137.0000
 26                                  137.0000
 27                                  142.0000
 28                                  139.0000
 29                                  137.0000
 30                                  140.0000
 31                                   64.0000
 32                                  141.0000
 33                                  141.6700
 34                                  141.0000
 35                                  142.0000
 36                                  144.0000
 37                                  145.0000
 38                                  145.0000
 39                                  144.0000
 40                                  145.0000
 41                                  144.0000
 42                                   64.0000
 43                                  145.0000
 44                                  122.0000
 45                                  110.0000
 46                                  108.0000
 47                                  107.0000
 48                                  107.0000
 49                                  108.0000
 50                                  107.0000
 51                                  107.0000
 52                                  105.9500
 53                                   64.0000
 54                                  107.0000
 55                                  109.0000
 56                                   89.0000
 57                                   86.0000
 58                                  146.0000
 59                                  146.0000
 60                                  150.0000
 61                                  151.0000
 62                                  151.8800
 63                                  154.0000
 64                                   64.0000
 65                                  152.0000
 66                                  155.0000
 67                                  156.0000
 68                                  156.0000
 69                                  155.0000
 70                                  152.0000
 71                                  150.0000
 72                                  153.0000
 73                                  150.0000
 74                                  145.9700
 75                                   64.0000
 76                                  147.0000
 77                                  147.0000
 78                                  140.0000
 79                                  130.0000
 80                                  125.9400
 81                                  129.0000
 82                                  121.0000
 83                                  126.2000
 84                                  132.0000
 85                                  102.0000
 86                                   64.0000
 87                                  113.0000
 88                                   98.0000
 89                                   98.0000
 90                                   96.2500
 91                                   98.0000
 92                                   98.0000
 93                                   98.0000
 94                                   98.0000
 95                                  105.0000
 96                                  110.0000
 97                                   63.0000
 98                                  115.0000
 99                                  110.0000
 100                                 115.0000
 101                                 112.0000
 102                                 111.1100
 103                                  98.0000
 104                                 184.0000
 105                                 177.0000
 106                                 176.0000
 107                                 152.0000
 108                                 150.8500
 109                                  63.0000
 110                                 151.0000
 111                                 136.0500
 112                                 136.0000
 113                                 134.0000
 114                                 134.0000
 115                                 135.0000
 116                                 135.0000
 117                                 140.0000
 118                                 133.0000
 119                                 132.0000
 120                                  50.0000
 121                                 131.0000
 122                                 131.0000
 123                                 130.0000
 124                                 130.0000
 125                                 132.1400
 126                                 134.0000
 127                                 135.0000
 128                                 144.0000
 129                                 144.0000
 130                                 143.0000
 131                                  50.0000
 132                                 138.3600
 133                                 143.9300
 134                                 148.0000
 135                                 147.0000
 136                                 140.0000
 137                                 140.0000
 138                                 143.1700
 139                                 144.0000
 140                                 147.0000
 141                                 147.0000
 142                                  50.0000
 143                                 135.2500
 144                                 148.0000
 145                                 149.0000
 146                                 148.0000
 147                                 127.0000
 148                                 127.0000
 149                                 126.0000
 150                                 127.0000
 151                                 135.0000
 152                                 124.4100
 153                                  50.0000
 154                                 136.0000
 155                                 125.0000
 156                                 125.0000
 157                                 126.0000
 158                                 127.0000
 159                                 126.0000
 160                                 128.0000
 161                                 133.0000
 162                                 136.0000
 163                                 133.0000
 164                                  50.0000
 165                                 126.0000
 166                                 126.0000
 167                                 130.0000
 168                                 128.0000
 169                                 129.0000
 170                                 148.0000
 171                                 139.5000
 172                                 132.0000
 173                                 126.0000
 174                                 115.0000
 175                                  50.0000
 176                                 109.0000
 177                                 127.0000
 178                                 137.0000
 179                                 136.0000
 180                                 135.0000
 181                                 130.2900
 182                                 126.0000
 183                                 120.0000
 184                                 120.0000
 185                                 116.0000
 186                                 112.1800
 187                                 122.0000
 188                                 125.0000
 189                                 121.0000
 190                                 108.0000
 191                                 109.0000
 192                                 104.7500
 193                                 134.0000
 194                                 135.0000
 195                                 131.0000
 196                                 134.0000
 197                                 115.0000
 198                                 137.0000
 199                                 134.0000
 200                                 136.0000
 201                                 134.0000
 202                                 134.0000
 203                                 136.0000
 204                                 136.0000
 205                                 135.0000
 206                                 134.9900
 207                                 135.0000
 208                                 137.2200
 209                                 135.0000
 210                                 130.0000
 211                                 125.0000
 212                                 125.0000
 213                                 124.0000
 214                                 115.0000
 215                                 137.0000
 216                                 137.0000
 217                                 136.0000
 218                                 134.0000
 219                                 155.6500
 220                                 137.0000
 221                                 131.0000
 222                                 140.0000
 223                                 138.0000
 224                                 142.0400
 225                                 128.0000
 226                                 129.0000
 227                                 115.0000
 228                                 114.8700
 229                                 119.0000
 230                                 175.0000
 231                                 112.0000
 232                                 107.0000
 233                                 102.8100
 234                                 123.0000
 235                                 120.5200
 236                                 117.0000
 237                                 116.0000
 238                                 112.0000
 239                                 103.0000
 240                                 103.0000
 241                                 175.0000
 242                                 102.0000
 243                                 107.0000
 244                                 107.0000
 245                                 102.0000
 246                                 100.0000
 247                                 101.0000
 248                                 100.0000
 249                                 101.0000
 250                                 103.0000
 251                                 175.0000
 252                                 101.0000
 253                                 104.0000
 254                                 104.0000
 255                                 109.0000
 256                                 115.0400
 257                                 140.0000
 258                                 140.0000
 259                                 140.3000
 260                                 175.0000
 261                                 143.0000
 262                                 143.0000
 263                                 183.3300
 264                                 184.0000
 265                                 183.5100
 266                                 183.5100
 267                                 184.0000
 268                                 202.0000
 269                                 210.0000
 270                                 210.0000
 271                                 214.0000
 272                                 213.2900
 273                                 175.0000
 274                                 212.0000
 275                                 213.0000
 276                                 217.0000
 277                                 217.0000
 278                                 220.0000
 279                                 220.0000
 280                                 222.0000
 281                                 223.0000
 282                                 225.0000
 283                                 224.0000
 284                                 186.0000
 285                                 225.0000
 286                                 224.5700
 287                                 225.0000
 288                                 218.3700
 289                                 219.0000
 290                                 218.7400
 291                                 218.7400
 292                                 219.0000
 293                                 218.7400
 294                                 219.0000
 295                                 218.7400
 296                                 219.0000
 297                                 219.0000
 298                                 186.0000
 299                                 219.0000
 300                                 237.0000
 301                                 235.0000
 302                                 228.5300
 303                                 235.0000
 304                                 233.0600
 305                                 186.0000
 306                                 228.0000
 307                                 228.0000
 308                                 227.0000
 309                                 223.0000
 310                                 225.0000
 311                                 222.0000
 312                                 222.0000
 313                                 222.0000
 314                                 222.0000
 315                                 222.0000
 317                                 221.5000
 318                                 183.0000
 319                                 222.0000
 320                                 222.0000
 321                                 222.0000
 322                                 222.0000
 323                                 222.0000
 324                                 221.0300
 325                                 222.0000
 326                                 222.0000
 327                                 218.0000
 328                                 205.0000
 329                                 203.0000
 330                                 203.0000
 331                                 186.0000
 332                                 203.0000
 333                                 203.0000
 334                                 211.0000
 335                                 213.0000
 336                                 202.0000
 337                                 203.8500
 338                                 206.0000
 339                                 206.0000
 340                                 209.0000
 341                                 210.0000
 342                                 185.7800
 343                                 210.0000
 344                                 211.0000
 345                                 210.9800
 346                                 208.0000
 347                                 206.0000
 348                                 200.0000
 349                                 205.0000
 350                                 202.4500
 351                                 195.0000
 352                                 198.0000
 353                                 185.7800
 354                                 198.0000
 355                                 197.0000
 356                                 186.0000
 357                                 185.4600
 358                                 185.4800
 359                                 187.0000
 360                                 187.0000
 361                                 187.0000
 362                                 185.4200
 363                                 185.4200
 364                                 197.0000
 365                                 196.6500
 366                                 196.2000
 367                                 195.0000
 368                                 205.0000
 369                                 205.0000
 370                                 205.0000
 371                                 205.0000
 372                                 205.0000
 373                                 205.0000
 374                                 202.0000
 375                                 197.1700
 376                                 193.0000
 377                                 194.0000
 378                                 193.0000
 379                                 192.0000
 380                                 186.0000
 381                                 186.0000
 382                                 180.4100
 383                                 179.0000
 384                                 175.0000
 385                                 174.0000
 386                                 172.9000
 387                                 185.0000
 388                                 181.6300
 389                                 171.0000
 390                                 180.0000
 391                                 175.0000
 392                                 180.0000
 393                                 187.0000
 394                                 177.0000
 396                                 170.0000
 397                                 167.0000
 398                                 177.3000
 399                                 178.0000
 400                                 179.0000
 401                                 192.0000
 402                                 192.0000
 403                                 189.0000
 404                                 190.0000
 405                                 197.0000
 407                                 190.0000
 408                                 192.0000
 409                                 194.0900
 410                                 195.0000
 411                                 185.0000
 412                                 183.0000
 413                                 184.0000
 414                                 180.0000
 415                                 185.0000
 416                                 176.0000
 417                                 184.0000
 418                                 178.1700
 419                                 185.0000
 420                                 186.0000
 421                                 186.0000
 422                                 180.0000
 423                                 167.0000
 424                                 166.0000
 425                                 175.0000
 426                                 166.0000
 427                                 175.0000
 428                                 167.0000
 429                                 162.0000
 430                                 162.0000
 431                                 161.0000
 432                                 171.0000
 433                                 171.0000
 434                                 167.9500
 435                                 166.0000
 436                                 157.0000
 437                                 174.0000
 438                                 170.1900
 439                                 175.0000
 440                                 176.0000
 441                                 177.0000
 442                                 173.0000
 443                                 175.0000
 444                                 177.5600
 445                                 165.0000
 446                                 165.0000
 447                                 165.0000
 448                                 169.0000
 449                                 169.0000
 450                                 162.0000
 451                                 164.0000
 452                                 160.0000
 453                                 167.0000
 454                                 146.0000
 455                                 144.4900
 456                                 140.0000
 457                                 140.0000
 458                                 140.0000
 459                                 202.0000
 460                                 200.5600
 461                                 210.0000
 462                                 210.0000
 463                                 200.0000
 464                                 195.0000
 465                                 195.0000
 466                                 193.0000
 467                                 187.0000
 468                                 187.0000
 469                                 182.0000
 470                                 183.0000
 471                                 189.0000
 472                                 197.7900
 473                                 194.0000
 474                                 212.0000
 475                                 211.0000
 476                                 198.4400
 477                                 148.0000
 478                                 179.0000
 479                                 153.7000
 480                                 148.0000
 481                                 147.0000
 482                                 153.0000
 483                                 154.0000
 484                                 152.0000
 485                                 152.0000
 486                                 151.0000
 487                                 150.0000
 488                                 150.0000
 489                                 148.0000
 490                                 155.0000
 491                                 152.0000
 492                                 150.0000
 493                                 156.0400
 494                                 175.0000
 495                                 149.0000
 496                                 160.0000
 497                                 161.0000
 498                                 174.0000
 499                                 146.0000
 500                                 155.0000
 501                                 155.0000
 502                                 167.0000
 503                                 166.0000
 504                                 168.0800
 505                                 172.8400
 506                                 174.0000
 507                                 173.0000
 508                                 173.0000
 509                                 171.0000
 510                                 174.0000
 511                                 166.0000
 512                                 163.4800
 513                                 162.0000
 514                                 162.0000
 515                                 174.0000
 516                                 166.0000
 517                                 167.0000
 518                                 161.3100
 519                                 163.0000
 520                                 155.0000
 521                                 160.0000
 522                                 159.0000
 523                                 158.0000
 524                                 157.0000
 525                                 156.0000
 526                                 156.1000
 527                                 157.0000
 528                                 156.0000
 529                                 157.8700
 530                                 155.0000
 531                                 172.0000
 532                                 177.0000
 533                                 177.0000
 534                                 182.0000
 535                                 190.0000
 536                                 190.0000
 537                                 193.0000
 538                                 193.0000
 539                                 194.1100
 540                                 200.0000
 541                                 176.0000
 542                                 189.0000
 543                                 189.0000
 544                                 189.0000
 545                                 182.0000
 546                                 179.4500
 547                                 179.0000
 548                                 182.0000
 549                                 179.0000
 550                                 176.0000
 551                                 180.0000
 552                                 178.0000
 553                                 172.0000
 554                                 168.0000
 555                                 169.0000
 556                                 173.0000
 557                                 165.5500
 558                                 169.0000
 559                                 172.0000
 560                                 171.0000
 561                                 173.0000
 562                                 182.0000
 563                                 167.0000
 564                                 161.0000
 565                                 161.0000
 566                                 163.2200
 567                                 163.0000
 568                                 165.0000
 569                                 162.0000
 570                                 158.0000
 571                                 160.0000
 572                                 160.0000
 573                                 160.0000
 574                                 160.0000
 575                                 160.0000
 576                                 158.0000
 577                                 163.0000
 578                                 157.0000
 579                                 153.0000
 580                                 153.0000
 581                                 153.0000
 582                                 154.0100
 583                                 153.0000
 584                                 157.0000
 585                                 156.0000
 586                                 155.0000
 587                                 155.0000
 588                                 154.0000
 589                                 153.0000
 590                                 154.1200
 591                                 150.0000
 592                                 150.0000
 593                                 150.0000
 594                                 149.0000
 595                                 148.0000
 596                                 147.9000
 597                                 146.0000
 598                                 145.0000
 599                                 147.0000
 600                                 147.0000
 601                                 147.0000
 602                                 154.0000
 603                                 154.0000
 604                                 154.0000
 605                                 154.0000
 606                                 150.0000
 607                                 149.0000
 608                                 148.3700
 609                                 147.0000
 610                                 147.0000
 611                                 146.0000
 612                                 144.0000
 613                                 144.0000
 614                                 142.0000
 615                                 142.0000
 616                                 142.0000
 617                                 141.0000
 618                                 141.0000
 619                                 140.2700
 620                                 141.0000
 621                                 138.0000
 622                                 137.0000
 623                                 137.0000
 624                                 137.0000
 625                                 148.0000
 626                                 158.0000
 627                                 147.8200
 628                                 146.0000
 629                                 145.0000
 630                                 143.0000
 631                                 143.0000
 632                                  69.0000
 633                                  69.0000
 634                                 139.0200
 635                                 139.8200
 636                                 139.8200
 637                                 140.0000
 638                                 140.0000
 639                                 139.0800
 642                                 140.0000
 643                                 141.0000
 644                                 157.0000
 645                                 157.0900
 646                                 158.0000
 647                                 160.0000
 648                                 160.0000
 649                                 160.0000
 650                                 160.0000
 651                                 160.0000
 652                                 166.0000